@<TRIPOS>MOLECULE
DOU
   78    81     1     0     0
SMALL
abcg2


@<TRIPOS>ATOM
      1 NA          44.4530    84.8580    23.7330 ns         1 DOU      -0.433500
      2 HA          44.3400    84.1110    24.4020 hn         1 DOU       0.318500
      3 C1A         45.1030    84.6780    22.5520 c          1 DOU       0.537200
      4 C2A         45.0740    86.0120    21.9230 cc         1 DOU      -0.118400
      5 C3A         44.4070    86.9160    22.7410 cd         1 DOU      -0.112600
      6 C4A         44.0190    86.1480    23.9010 cd         1 DOU       0.264200
      7 CMA         45.7680    86.2120    20.5950 c3         1 DOU      -0.057900
      8 HMA1        46.5160    85.4330    20.4060 hc         1 DOU       0.070700
      9 HMA2        46.2930    87.1740    20.5680 hc         1 DOU       0.070700
     10 HMA3        45.0470    86.1880    19.7700 hc         1 DOU       0.070700
     11 OA          45.5960    83.6350    22.1480 o          1 DOU      -0.467000
     12 CAA         44.1750    88.3500    22.5040 cf         1 DOU      -0.200000
     13 HAA         44.0220    88.9660    23.3930 ha         1 DOU       0.183000
     14 CBA         44.1190    88.9460    21.2890 c2         1 DOU      -0.252000
     15 HBA1        43.9360    90.0180    21.2030 ha         1 DOU       0.179500
     16 HBA2        44.2260    88.3900    20.3600 ha         1 DOU       0.179500
     17 C5          43.3340    86.6150    24.9990 cf         1 DOU      -0.342600
     18 H5          43.0790    87.6680    24.9400 ha         1 DOU       0.229000
     19 NB          43.0070    84.6780    26.4310 na         1 DOU      -0.577000
     20 HB          43.3680    83.9770    25.8000 hn         1 DOU       0.519000
     21 C1B         42.8860    85.9810    26.2410 cc         1 DOU       0.172000
     22 C2B         42.3100    86.6850    27.3430 cc         1 DOU      -0.137200
     23 C3B         42.0740    85.7470    28.3110 cd         1 DOU      -0.017200
     24 C4B         42.5140    84.5180    27.7130 cd         1 DOU      -0.063000
     25 CMB         42.0530    88.1740    27.3690 c3         1 DOU      -0.040900
     26 HMB1        41.4470    88.4810    26.5080 hc         1 DOU       0.058033
     27 HMB2        42.9950    88.7340    27.3390 hc         1 DOU       0.058033
     28 HMB3        41.5110    88.4820    28.2700 hc         1 DOU       0.058033
     29 C10         42.4830    83.2880    28.3400 ce         1 DOU       0.041800
     30 H10         42.1460    83.3110    29.3740 ha         1 DOU       0.250000
     31 NC          42.7350    81.5480    26.5380 na         1 DOU      -0.183600
     32 HC          42.4470    82.1650    25.7940 hn         1 DOU       0.360000
     33 C1C         42.8170    81.9440    27.8690 cc         1 DOU      -0.189000
     34 C2C         43.2220    80.8330    28.5650 cd         1 DOU       0.025700
     35 C3C         43.3940    79.7630    27.6420 cd         1 DOU      -0.146300
     36 C4C         43.0740    80.2070    26.3820 cc         1 DOU       0.105000
     37 CMC         43.8330    78.3560    27.9880 c3         1 DOU      -0.044800
     38 HMC1        44.1580    78.2600    29.0290 hc         1 DOU       0.063033
     39 HMC2        44.6750    78.0440    27.3580 hc         1 DOU       0.063033
     40 HMC3        43.0150    77.6430    27.8310 hc         1 DOU       0.063033
     41 C15         43.0460    79.4490    25.1280 ce         1 DOU      -0.281200
     42 H15         43.3810    78.4240    25.2680 ha         1 DOU       0.235000
     43 ND          42.2470    80.9250    23.3250 ns         1 DOU      -0.434100
     44 HD          42.0660    81.7680    23.8440 hn         1 DOU       0.327500
     45 C1D         42.7120    79.7320    23.8200 cd         1 DOU       0.136600
     46 C2D         42.7780    78.7990    22.7240 cd         1 DOU      -0.072200
     47 C3D         42.3490    79.4830    21.5930 cc         1 DOU      -0.071200
     48 C4D         42.0020    80.8730    21.9860 c          1 DOU       0.547200
     49 CMD         43.2230    77.3550    22.8140 c3         1 DOU      -0.059900
     50 HMD1        42.9530    76.7790    21.9230 hc         1 DOU       0.067700
     51 HMD2        42.7560    76.8500    23.6670 hc         1 DOU       0.067700
     52 HMD3        44.3100    77.2900    22.9380 hc         1 DOU       0.067700
     53 OD          41.5900    81.8050    21.3110 o          1 DOU      -0.458000
     54 CAD         42.2470    78.9630    20.2180 ce         1 DOU      -0.208000
     55 HAD         42.7130    77.9890    20.0650 ha         1 DOU       0.193000
     56 CBD         41.6460    79.5560    19.1630 c2         1 DOU      -0.235000
     57 HBD1        41.6280    79.0780    18.1820 ha         1 DOU       0.188000
     58 HBD2        41.1460    80.5220    19.2260 ha         1 DOU       0.188000
     59 CA          43.4670    80.7580    30.0570 c3         1 DOU      -0.046100
     60 CB          42.3260    80.0500    30.8310 c3         1 DOU      -0.171400
     61 CG          41.0140    80.8430    30.7690 c          1 DOU       0.584100
     62 O1          40.8530    81.7740    31.7420 oh         1 DOU      -0.624100
     63 O2          40.1900    80.7240    29.8780 o          1 DOU      -0.457000
     64 HA1         43.6180    81.7620    30.4720 hc         1 DOU       0.088200
     65 HA2         44.4070    80.2270    30.2490 hc         1 DOU       0.088200
     66 HB1         42.6570    79.9520    31.8710 hc         1 DOU       0.088700
     67 HB2         42.1640    79.0570    30.3970 hc         1 DOU       0.088700
     68 H11         41.6320    81.6800    32.3500 ho         1 DOU       0.487000
     69 CA          41.4780    85.9580    29.6870 c3         1 DOU      -0.037200
     70 CB          39.9640    85.6330    29.7220 c3         1 DOU      -0.174400
     71 CG          39.3500    85.9600    31.0890 c          1 DOU       0.611100
     72 O1          39.4030    85.2100    32.0490 o          1 DOU      -0.521000
     73 O2          38.7750    87.1830    31.1990 oh         1 DOU      -0.594100
     74 HA1         42.0010    85.3430    30.4290 hc         1 DOU       0.085200
     75 HA2         41.6350    86.9940    30.0110 hc         1 DOU       0.085200
     76 HB1         39.4800    86.2220    28.9340 hc         1 DOU       0.091700
     77 HB2         39.8310    84.5640    29.5210 hc         1 DOU       0.091700
     78 H11         38.8610    87.6120    30.3090 ho         1 DOU       0.480000
@<TRIPOS>BOND
     1     1     2 1   
     2     1     3 1   
     3     1     6 1   
     4     3     4 1   
     5     3    11 2   
     6     4     5 2   
     7     4     7 1   
     8     5     6 1   
     9     5    12 1   
    10     6    17 2   
    11     7     8 1   
    12     7     9 1   
    13     7    10 1   
    14    12    13 1   
    15    12    14 2   
    16    14    15 1   
    17    14    16 1   
    18    17    18 1   
    19    17    21 1   
    20    19    20 1   
    21    19    21 2   
    22    19    24 1   
    23    21    22 1   
    24    22    23 2   
    25    22    25 1   
    26    23    24 1   
    27    24    29 2   
    28    25    26 1   
    29    25    27 1   
    30    25    28 1   
    31    29    30 1   
    32    29    33 1   
    33    31    32 1   
    34    31    33 1   
    35    31    36 1   
    36    33    34 2   
    37    34    35 1   
    38    35    36 2   
    39    35    37 1   
    40    36    41 1   
    41    37    38 1   
    42    37    39 1   
    43    37    40 1   
    44    41    42 1   
    45    41    45 2   
    46    43    44 1   
    47    43    45 1   
    48    43    48 1   
    49    45    46 1   
    50    46    47 2   
    51    46    49 1   
    52    47    48 1   
    53    47    54 1   
    54    48    53 2   
    55    49    50 1   
    56    49    51 1   
    57    49    52 1   
    58    54    55 1   
    59    54    56 2   
    60    56    57 1   
    61    56    58 1   
    62    59    60 1   
    63    59    64 1   
    64    59    65 1   
    65    60    61 1   
    66    60    66 1   
    67    60    67 1   
    68    61    62 1   
    69    61    63 2   
    70    62    68 1   
    71    69    70 1   
    72    69    74 1   
    73    69    75 1   
    74    70    71 1   
    75    70    76 1   
    76    70    77 1   
    77    71    72 2   
    78    71    73 1   
    79    73    78 1   
    80    59    34 1   
    81    69    23 1   
@<TRIPOS>SUBSTRUCTURE
     1 DOU         1 TEMP              0 ****  ****    0 ROOT
